gem5 Simulator System.  http://gem5.org
gem5 is copyrighted software; use the --copyright option for details.

gem5 compiled Apr 22 2020 19:58:47
gem5 started Apr 22 2020 20:20:30
gem5 executing on DESKTOP-9Q15VJ6, pid 7348
command line: build/X86/gem5.opt configs/tutorial/two_level.py --l2_size=1MB --l1d_size=128kB

Global frequency set at 1000000000000 ticks per second
warn: DRAM device capacity (8192 Mbytes) does not match the address range assigned (512 Mbytes)
0: system.remote_gdb: listening for remote gdb on port 7000
Beginning simulation!
info: Entering event queue @ 0.  Starting simulation...
Hello world!
Exiting @ tick 56435000 because exiting with last active thread context